9
Ethanol
C         -0.95350        0.04780        0.04250
C          0.48910       -0.32040       -0.18860
O          1.27700        0.32480        0.73770
H         -1.56874       -0.45221       -0.67609
H         -1.07247        1.10612       -0.06096
H         -1.24379       -0.24902        1.02867
H          0.78033       -0.02344       -1.17445
H          0.60977       -1.37871       -0.08701
H          1.16641        1.28393        0.64422
